135191341
  -OEChem-02242004592D

 23 23  0     1  0  0  0  0  0999 V2000
    6.7508    3.8281    0.0000 O   0  0  0  0  0  0  0  0  0  0  0  0
    2.4207    2.5781    0.0000 O   0  0  0  0  0  0  0  0  0  0  0  0
    9.6951   -0.6918    0.0000 O   0  0  0  0  0  0  0  0  0  0  0  0
    3.5032    4.4531    0.0000 O   0  0  0  0  0  0  0  0  0  0  0  0
    1.3382   -1.7969    0.0000 O   0  0  0  0  0  0  0  0  0  0  0  0
    5.6683    1.9531    0.0000 N   0  0  0  0  0  0  0  0  0  0  0  0
    7.9640    0.7100    0.0000 N   0  0  0  0  0  0  0  0  0  0  0  0
    3.5032    0.7031    0.0000 N   0  0  0  0  0  0  0  0  0  0  0  0
    3.5032   -1.7969    0.0000 N   0  0  0  0  0  0  0  0  0  0  0  0
    7.8334    1.9531    0.0000 C   0  0  3  0  0  0  0  0  0  0  0  0
    6.7508    2.5781    0.0000 C   0  0  0  0  0  0  0  0  0  0  0  0
    4.5858    2.5781    0.0000 C   0  0  3  0  0  0  0  0  0  0  0  0
    3.5032    1.9531    0.0000 C   0  0  0  0  0  0  0  0  0  0  0  0
    9.1867    0.4501    0.0000 C   0  0  0  0  0  0  0  0  0  0  0  0
    8.9753    2.4615    0.0000 C   0  0  0  0  0  0  0  0  0  0  0  0
    2.4207    0.0781    0.0000 C   0  0  3  0  0  0  0  0  0  0  0  0
    9.8117    1.5326    0.0000 C   0  0  0  0  0  0  0  0  0  0  0  0
    4.5858    3.8281    0.0000 C   0  0  0  0  0  0  0  0  0  0  0  0
    2.4207   -1.1719    0.0000 C   0  0  0  0  0  0  0  0  0  0  0  0
    1.3382    0.7031    0.0000 C   0  0  0  0  0  0  0  0  0  0  0  0
    0.2556    0.0781    0.0000 C   0  0  0  0  0  0  0  0  0  0  0  0
    0.2556   -1.1719    0.0000 C   0  0  0  0  0  0  0  0  0  0  0  0
   -0.8269    0.7031    0.0000 C   0  0  0  0  0  0  0  0  0  0  0  0
  1 11  2  0  0  0  0
  2 13  2  0  0  0  0
  3 14  2  0  0  0  0
  4 18  1  0  0  0  0
  5 19  2  0  0  0  0
  6 11  1  0  0  0  0
 12  6  1  6  0  0  0
  7 10  1  0  0  0  0
  7 14  1  0  0  0  0
  8 13  1  0  0  0  0
 16  8  1  6  0  0  0
  9 19  1  0  0  0  0
 10 11  1  6  0  0  0
 10 15  1  0  0  0  0
 12 13  1  0  0  0  0
 12 18  1  0  0  0  0
 14 17  1  0  0  0  0
 15 17  1  0  0  0  0
 16 19  1  0  0  0  0
 16 20  1  0  0  0  0
 20 21  1  0  0  0  0
 21 22  1  0  0  0  0
 21 23  1  0  0  0  0
M  END
> <PUBCHEM_COMPOUND_ID_TYPE>
0

> <PUBCHEM_TOTAL_CHARGE>
0

> <PUBCHEM_SUBSTANCE_ID>
135191341

> <PUBCHEM_SUBSTANCE_VERSION>
1

> <PUBCHEM_EXT_DATASOURCE_NAME>
ChemIDplus

> <PUBCHEM_EXT_DATASOURCE_REGID>
0073684807

> <PUBCHEM_SUBSTANCE_SYNONYM>
73684-80-7
L-Leucinamide, 5-oxo-L-prolyl-L-seryl-
Pyr-ser-leu-NH2
Pyro-gln-ser-leu-amide
Pyroglutamine-serine-leucinamide
Pyroglutaminyl-seryl-leucinamide
Pyroglutamylserylleucinamide
Thyrotropin releasing hormone-AN
Trh-AN

> <PUBCHEM_GENERIC_REGISTRY_NAME>
73684-80-7

> <PUBCHEM_XREF_EXT_ID>
0073684807

> <PUBCHEM_EXT_DATASOURCE_URL>
http://chem.sis.nlm.nih.gov/chemidplus/

> <PUBCHEM_EXT_SUBSTANCE_URL>
http://chem.sis.nlm.nih.gov/chemidplus/direct.jsp?result=advanced&regno=0073684807

> <PUBCHEM_CID_ASSOCIATIONS>
173203  1

> <PUBCHEM_COORDINATE_TYPE>
1
3

> <PUBCHEM_BONDANNOTATIONS>
10  11  6
12  6  6
16  8  6

$$$$
